/*--------------------------------*- C++ -*----------------------------------*\
| =========                 |                                                 |
| \\      /  F ield         | OpenFOAM: The Open Source CFD Toolbox           |
|  \\    /   O peration     | Version:  v3.0+                                 |
|   \\  /    A nd           | Web:      www.OpenFOAM.com                      |
|    \\/     M anipulation  |                                                 |
\*---------------------------------------------------------------------------*/
FoamFile
{
    version     0.0;
    format      ascii;
    class       polyBoundaryMesh;
    location    "constant/polyMesh";
    object      boundary;
}
// * * * * * * * * * * * * * * * * * * * * * * * * * * * * * * * * * * * * * //


4
(
frontAndBack
{
    type            empty;
    physicalType    patch;
    nFaces          54046;
    startFace       40151;
}

freeSurface
{
    type            patch;
    physicalType    patch;
    nFaces          722;
    startFace       94197;
}

loadSurface
{
    type            patch;
    physicalType    patch;
    nFaces          5;
    startFace       94919;
}

fixedSurface
{
    type            patch;
    physicalType    patch;
    nFaces          40;
    startFace       94924;
}

)


// ************************************************************************* //
